src/case39_v34.raw
@!IC, SBASE,REV,XFRRAT,NXFRAT,BASFRQ
0,   100.00, 34,     0,     0, 60.00     / PSS(R)E-34.1    WED, MAY 31 2017  14:10


GENERAL, THRSHZ=0.0001, PQBRAK=0.001, BLOWUP=5.0
GAUSS, ITMX=100, ACCP=1.6, ACCQ=1.6, ACCM=1.0, TOL=0.0001
NEWTON, ITMXN=100, ACCN=1.0, TOLN=0.0001, VCTOLQ=0.0001, VCTOLV=0.00001, DVLIM=0.99, NDVFCT=0.99
ADJUST, ADJTHR=0.005, ACCTAP=1.0, TAPLIM=0.05, SWVBND=100.0, MXTPSS=99, MXSWIM=10
TYSL, ITMXTY=20, ACCTY=1.0, TOLTY=0.00001
SOLVER, FNSL, ACTAPS=0, AREAIN=0, PHSHFT=0, DCTAPS=0, SWSHNT=0, VARLIM=-1
RATING, 1, "RATE1 ", "RATING SET 1                    "
RATING, 2, "RATE2 ", "RATING SET 2                    "
RATING, 3, "RATE3 ", "RATING SET 3                    "
RATING, 4, "RATE4 ", "RATING SET 4                    "
RATING, 5, "RATE5 ", "RATING SET 5                    "
RATING, 6, "RATE6 ", "RATING SET 6                    "
RATING, 7, "RATE7 ", "RATING SET 7                    "
RATING, 8, "RATE8 ", "RATING SET 8                    "
RATING, 9, "RATE9 ", "RATING SET 9                    "
RATING,10, "RATE10", "RATING SET 10                   "
RATING,11, "RATE11", "RATING SET 11                   "
RATING,12, "RATE12", "RATING SET 12                   "
0 / END OF SYSTEM-WIDE DATA, BEGIN BUS DATA
@!   I,'NAME        ', BASKV, IDE,AREA,ZONE,OWNER, VM,        VA,    NVHI,   NVLO,   EVHI,   EVLO
     1,'1           ', 345.0000,1,   2,   1,   1,1.03938, -13.5366,1.10000,0.90000,1.10000,0.90000
     2,'2           ', 345.0000,1,   2,   1,   1,1.04849,  -9.7853,1.10000,0.90000,1.10000,0.90000
     3,'3           ', 345.0000,1,   2,   1,   1,1.03071, -12.2764,1.10000,0.90000,1.10000,0.90000
     4,'4           ', 345.0000,1,   1,   1,   1,1.00446, -12.6268,1.10000,0.90000,1.10000,0.90000
     5,'5           ', 345.0000,1,   1,   1,   1,1.00601, -11.1924,1.10000,0.90000,1.10000,0.90000
     6,'6           ', 345.0000,1,   1,   1,   1,1.00823, -10.4083,1.10000,0.90000,1.10000,0.90000
     7,'7           ', 345.0000,1,   1,   1,   1,0.99840, -12.7556,1.10000,0.90000,1.10000,0.90000
     8,'8           ', 345.0000,1,   1,   1,   1,0.99787, -13.3359,1.10000,0.90000,1.10000,0.90000
     9,'9           ', 345.0000,1,   1,   1,   1,1.03833, -14.1785,1.10000,0.90000,1.10000,0.90000
    10,'10          ', 345.0000,1,   1,   1,   1,1.01784,  -8.1709,1.10000,0.90000,1.10000,0.90000
    11,'11          ', 345.0000,1,   1,   1,   1,1.01339,  -8.9370,1.10000,0.90000,1.10000,0.90000
    12,'12          ', 345.0000,1,   1,   1,   1,1.00081,  -8.9988,1.10000,0.90000,1.10000,0.90000
    13,'13          ', 345.0000,1,   1,   1,   1,1.01492,  -8.9299,1.10000,0.90000,1.10000,0.90000
    14,'14          ', 345.0000,1,   1,   1,   1,1.01232, -10.7153,1.10000,0.90000,1.10000,0.90000
    15,'15          ', 345.0000,1,   3,   1,   1,1.01618, -11.3454,1.10000,0.90000,1.10000,0.90000
    16,'16          ', 345.0000,1,   3,   1,   1,1.03252, -10.0334,1.10000,0.90000,1.10000,0.90000
    17,'17          ', 345.0000,1,   2,   1,   1,1.03424, -11.1165,1.10000,0.90000,1.10000,0.90000
    18,'18          ', 345.0000,1,   2,   1,   1,1.03157, -11.9862,1.10000,0.90000,1.10000,0.90000
    19,'19          ', 345.0000,1,   3,   1,   1,1.05011,  -5.4101,1.10000,0.90000,1.10000,0.90000
    20,'20          ', 345.0000,1,   3,   1,   1,0.99101,  -6.8212,1.10000,0.90000,1.10000,0.90000
    21,'21          ', 345.0000,1,   3,   1,   1,1.03232,  -7.6288,1.10000,0.90000,1.10000,0.90000
    22,'22          ', 345.0000,1,   3,   1,   1,1.05014,  -3.1831,1.10000,0.90000,1.10000,0.90000
    23,'23          ', 345.0000,1,   3,   1,   1,1.04514,  -3.3813,1.10000,0.90000,1.10000,0.90000
    24,'24          ', 345.0000,1,   3,   1,   1,1.03800,  -9.9138,1.10000,0.90000,1.10000,0.90000
    25,'25          ', 345.0000,1,   2,   1,   1,1.05768,  -8.3693,1.10000,0.90000,1.10000,0.90000
    26,'26          ', 345.0000,1,   2,   1,   1,1.05256,  -9.4388,1.10000,0.90000,1.10000,0.90000
    27,'27          ', 345.0000,1,   2,   1,   1,1.03834, -11.3622,1.10000,0.90000,1.10000,0.90000
    28,'28          ', 345.0000,1,   3,   1,   1,1.05037,  -5.9284,1.10000,0.90000,1.10000,0.90000
    29,'29          ', 345.0000,1,   3,   1,   1,1.05011,  -3.1699,1.10000,0.90000,1.10000,0.90000
    30,'30          ', 345.0000,2,   2,   1,   1,1.04990,  -7.3705,1.10000,0.90000,1.10000,0.90000
    31,'31          ', 345.0000,3,   1,   1,   1,0.98200,   0.0000,1.10000,0.90000,1.10000,0.90000
    32,'32          ', 345.0000,2,   1,   1,   1,0.98410,  -0.1885,1.10000,0.90000,1.10000,0.90000
    33,'33          ', 345.0000,2,   3,   1,   1,0.99720,  -0.1932,1.10000,0.90000,1.10000,0.90000
    34,'34          ', 345.0000,2,   3,   1,   1,1.01230,  -1.6311,1.10000,0.90000,1.10000,0.90000
    35,'35          ', 345.0000,2,   3,   1,   1,1.04940,   1.7765,1.10000,0.90000,1.10000,0.90000
    36,'36          ', 345.0000,2,   3,   1,   1,1.06360,   4.4684,1.10000,0.90000,1.10000,0.90000
    37,'37          ', 345.0000,2,   2,   1,   1,1.02750,  -1.5829,1.10000,0.90000,1.10000,0.90000
    38,'38          ', 345.0000,2,   3,   1,   1,1.02650,   3.8928,1.10000,0.90000,1.10000,0.90000
    39,'39          ', 345.0000,2,   1,   1,   1,1.03000, -14.5353,1.10000,0.90000,1.10000,0.90000
0 / END OF BUS DATA, BEGIN LOAD DATA
@!   I,'ID',STAT,AREA,ZONE,      PL,        QL,        IP,        IQ,        YP,        YQ, OWNER,SCALE,INTRPT,  DGENP,     DGENQ, DGENF
     1,'1 ',   1,   2,   1,    97.600,    44.200,     0.000,     0.000,     0.000,     0.000,   1,    1,  0,     0.000,     0.000,   0
     3,'1 ',   1,   2,   1,   322.000,     2.400,     0.000,     0.000,     0.000,     0.000,   1,    1,  0,     0.000,     0.000,   0
     4,'1 ',   1,   1,   1,   500.000,   184.000,     0.000,     0.000,     0.000,     0.000,   1,    1,  0,     0.000,     0.000,   0
     7,'1 ',   1,   1,   1,   233.800,    84.000,     0.000,     0.000,     0.000,     0.000,   1,    1,  0,     0.000,     0.000,   0
     8,'1 ',   1,   1,   1,   522.000,   176.600,     0.000,     0.000,     0.000,     0.000,   1,    1,  0,     0.000,     0.000,   0
     9,'1 ',   1,   1,   1,     6.500,   -66.600,     0.000,     0.000,     0.000,     0.000,   1,    1,  0,     0.000,     0.000,   0
    12,'1 ',   1,   1,   1,     8.530,    88.000,     0.000,     0.000,     0.000,     0.000,   1,    1,  0,     0.000,     0.000,   0
    15,'1 ',   1,   3,   1,   320.000,   153.000,     0.000,     0.000,     0.000,     0.000,   1,    1,  0,     0.000,     0.000,   0
    16,'1 ',   1,   3,   1,   329.000,    32.300,     0.000,     0.000,     0.000,     0.000,   1,    1,  0,     0.000,     0.000,   0
    18,'1 ',   1,   2,   1,   158.000,    30.000,     0.000,     0.000,     0.000,     0.000,   1,    1,  0,     0.000,     0.000,   0
    20,'1 ',   1,   3,   1,   680.000,   103.000,     0.000,     0.000,     0.000,     0.000,   1,    1,  0,     0.000,     0.000,   0
    21,'1 ',   1,   3,   1,   274.000,   115.000,     0.000,     0.000,     0.000,     0.000,   1,    1,  0,     0.000,     0.000,   0
    23,'1 ',   1,   3,   1,   247.500,    84.600,     0.000,     0.000,     0.000,     0.000,   1,    1,  0,     0.000,     0.000,   0
    24,'1 ',   1,   3,   1,   308.600,   -92.200,     0.000,     0.000,     0.000,     0.000,   1,    1,  0,     0.000,     0.000,   0
    25,'1 ',   1,   2,   1,   224.000,    47.200,     0.000,     0.000,     0.000,     0.000,   1,    1,  0,     0.000,     0.000,   0
    26,'1 ',   1,   2,   1,   139.000,    17.000,     0.000,     0.000,     0.000,     0.000,   1,    1,  0,     0.000,     0.000,   0
    27,'1 ',   1,   2,   1,   281.000,    75.500,     0.000,     0.000,     0.000,     0.000,   1,    1,  0,     0.000,     0.000,   0
    28,'1 ',   1,   3,   1,   206.000,    27.600,     0.000,     0.000,     0.000,     0.000,   1,    1,  0,     0.000,     0.000,   0
    29,'1 ',   1,   3,   1,   283.500,    26.900,     0.000,     0.000,     0.000,     0.000,   1,    1,  0,     0.000,     0.000,   0
    31,'1 ',   1,   1,   1,     9.200,     4.600,     0.000,     0.000,     0.000,     0.000,   1,    1,  0,     0.000,     0.000,   0
    39,'1 ',   1,   1,   1,  1104.000,   250.000,     0.000,     0.000,     0.000,     0.000,   1,    1,  0,     0.000,     0.000,   0
0 / END OF LOAD DATA, BEGIN FIXED SHUNT DATA
@!   I,'ID',STATUS,  GL,        BL
0 / END OF FIXED SHUNT DATA, BEGIN GENERATOR DATA
@!   I,'ID',      PG,        QG,        QT,        QB,     VS,    IREG,     MBASE,     ZR,         ZX,         RT,         XT,     GTAP,STAT, RMPCT,      PT,        PB,    O1,    F1,  O2,    F2,  O3,    F3,  O4,    F4,WMOD,  WPF
    30,'1 ',   250.000,   161.762,   400.000,   140.000,1.04990,     0,   100.000, 0.00000E+0, 1.00000E+0, 0.00000E+0, 0.00000E+0,1.00000,1,  100.0,  1040.000,     0.000,   1,1.0000
    31,'1 ',   677.873,   221.574,   300.000,  -100.000,0.98200,     0,   100.000, 0.00000E+0, 1.00000E+0, 0.00000E+0, 0.00000E+0,1.00000,1,  100.0,   646.000,     0.000,   1,1.0000
    32,'1 ',   650.000,   206.964,   300.000,   150.000,0.98410,     0,   100.000, 0.00000E+0, 1.00000E+0, 0.00000E+0, 0.00000E+0,1.00000,1,  100.0,   725.000,     0.000,   1,1.0000
    33,'1 ',   632.000,   108.294,   250.000,     0.000,0.99720,     0,   100.000, 0.00000E+0, 1.00000E+0, 0.00000E+0, 0.00000E+0,1.00000,1,  100.0,   652.000,     0.000,   1,1.0000
    34,'1 ',   508.000,   166.689,   167.000,     0.000,1.01230,     0,   100.000, 0.00000E+0, 1.00000E+0, 0.00000E+0, 0.00000E+0,1.00000,1,  100.0,   508.000,     0.000,   1,1.0000
    35,'1 ',   650.000,   210.660,   300.000,  -100.000,1.04940,     0,   100.000, 0.00000E+0, 1.00000E+0, 0.00000E+0, 0.00000E+0,1.00000,1,  100.0,   687.000,     0.000,   1,1.0000
    36,'1 ',   560.000,   100.166,   240.000,     0.000,1.06360,     0,   100.000, 0.00000E+0, 1.00000E+0, 0.00000E+0, 0.00000E+0,1.00000,1,  100.0,   580.000,     0.000,   1,1.0000
    37,'1 ',   540.000,    -1.369,   250.000,     0.000,1.02750,     0,   100.000, 0.00000E+0, 1.00000E+0, 0.00000E+0, 0.00000E+0,1.00000,1,  100.0,   564.000,     0.000,   1,1.0000
    38,'1 ',   830.000,    21.733,   300.000,  -150.000,1.02650,     0,   100.000, 0.00000E+0, 1.00000E+0, 0.00000E+0, 0.00000E+0,1.00000,1,  100.0,   865.000,     0.000,   1,1.0000
    39,'1 ',  1000.000,    78.468,   300.000,  -100.000,1.03000,     0,   100.000, 0.00000E+0, 1.00000E+0, 0.00000E+0, 0.00000E+0,1.00000,1,  100.0,  1100.000,     0.000,   1,1.0000
0 / END OF GENERATOR DATA, BEGIN BRANCH DATA
@!   I,     J,'CKT',     R,          X,         B,                    'N A M E'                 ,   RATE1,   RATE2,   RATE3,   RATE4,   RATE5,   RATE6,   RATE7,   RATE8,   RATE9,  RATE10,  RATE11,  RATE12,    GI,       BI,       GJ,       BJ,STAT,MET,  LEN,  O1,  F1,    O2,  F2,    O3,  F3,    O4,  F4
     1,     2,'1 ', 3.50000E-3, 4.11000E-2,   0.69870,'                                        ',  600.00,  600.00,  600.00,    0.00,    0.00,    0.00,    0.00,    0.00,    0.00,    0.00,    0.00,    0.00,  0.00000,  0.00000,  0.00000,  0.00000,1,1,   0.00,   1,1.0000
     1,    39,'1 ', 1.00000E-3, 2.50000E-2,   0.75000,'                                        ', 1000.00, 1000.00, 1000.00,    0.00,    0.00,    0.00,    0.00,    0.00,    0.00,    0.00,    0.00,    0.00,  0.00000,  0.00000,  0.00000,  0.00000,1,1,   0.00,   1,1.0000
     2,     3,'1 ', 1.30000E-3, 1.51000E-2,   0.25720,'                                        ',  500.00,  500.00,  500.00,    0.00,    0.00,    0.00,    0.00,    0.00,    0.00,    0.00,    0.00,    0.00,  0.00000,  0.00000,  0.00000,  0.00000,1,1,   0.00,   1,1.0000
     2,    25,'1 ', 7.00000E-3, 8.60000E-3,   0.14600,'                                        ',  500.00,  500.00,  500.00,    0.00,    0.00,    0.00,    0.00,    0.00,    0.00,    0.00,    0.00,    0.00,  0.00000,  0.00000,  0.00000,  0.00000,1,1,   0.00,   1,1.0000
     3,     4,'1 ', 1.30000E-3, 2.13000E-2,   0.22140,'                                        ',  500.00,  500.00,  500.00,    0.00,    0.00,    0.00,    0.00,    0.00,    0.00,    0.00,    0.00,    0.00,  0.00000,  0.00000,  0.00000,  0.00000,1,1,   0.00,   1,1.0000
     3,    18,'1 ', 1.10000E-3, 1.33000E-2,   0.21380,'                                        ',  500.00,  500.00,  500.00,    0.00,    0.00,    0.00,    0.00,    0.00,    0.00,    0.00,    0.00,    0.00,  0.00000,  0.00000,  0.00000,  0.00000,1,1,   0.00,   1,1.0000
     4,     5,'1 ', 8.00000E-4, 1.28000E-2,   0.13420,'                                        ',  600.00,  600.00,  600.00,    0.00,    0.00,    0.00,    0.00,    0.00,    0.00,    0.00,    0.00,    0.00,  0.00000,  0.00000,  0.00000,  0.00000,1,1,   0.00,   1,1.0000
     4,    14,'1 ', 8.00000E-4, 1.29000E-2,   0.13820,'                                        ',  500.00,  500.00,  500.00,    0.00,    0.00,    0.00,    0.00,    0.00,    0.00,    0.00,    0.00,    0.00,  0.00000,  0.00000,  0.00000,  0.00000,1,1,   0.00,   1,1.0000
     5,     6,'1 ', 2.00000E-4, 2.60000E-3,   0.04340,'                                        ', 1200.00, 1200.00, 1200.00,    0.00,    0.00,    0.00,    0.00,    0.00,    0.00,    0.00,    0.00,    0.00,  0.00000,  0.00000,  0.00000,  0.00000,1,1,   0.00,   1,1.0000
     5,     8,'1 ', 8.00000E-4, 1.12000E-2,   0.14760,'                                        ',  900.00,  900.00,  900.00,    0.00,    0.00,    0.00,    0.00,    0.00,    0.00,    0.00,    0.00,    0.00,  0.00000,  0.00000,  0.00000,  0.00000,1,1,   0.00,   1,1.0000
     6,     7,'1 ', 6.00000E-4, 9.20000E-3,   0.11300,'                                        ',  900.00,  900.00,  900.00,    0.00,    0.00,    0.00,    0.00,    0.00,    0.00,    0.00,    0.00,    0.00,  0.00000,  0.00000,  0.00000,  0.00000,1,1,   0.00,   1,1.0000
     6,    11,'1 ', 7.00000E-4, 8.20000E-3,   0.13890,'                                        ',  480.00,  480.00,  480.00,    0.00,    0.00,    0.00,    0.00,    0.00,    0.00,    0.00,    0.00,    0.00,  0.00000,  0.00000,  0.00000,  0.00000,1,1,   0.00,   1,1.0000
     7,     8,'1 ', 4.00000E-4, 4.60000E-3,   0.07800,'                                        ',  900.00,  900.00,  900.00,    0.00,    0.00,    0.00,    0.00,    0.00,    0.00,    0.00,    0.00,    0.00,  0.00000,  0.00000,  0.00000,  0.00000,1,1,   0.00,   1,1.0000
     8,     9,'1 ', 2.30000E-3, 3.63000E-2,   0.38040,'                                        ',  900.00,  900.00,  900.00,    0.00,    0.00,    0.00,    0.00,    0.00,    0.00,    0.00,    0.00,    0.00,  0.00000,  0.00000,  0.00000,  0.00000,1,1,   0.00,   1,1.0000
     9,    39,'1 ', 1.00000E-3, 2.50000E-2,   1.20000,'                                        ',  900.00,  900.00,  900.00,    0.00,    0.00,    0.00,    0.00,    0.00,    0.00,    0.00,    0.00,    0.00,  0.00000,  0.00000,  0.00000,  0.00000,1,1,   0.00,   1,1.0000
    10,    11,'1 ', 4.00000E-4, 4.30000E-3,   0.07290,'                                        ',  600.00,  600.00,  600.00,    0.00,    0.00,    0.00,    0.00,    0.00,    0.00,    0.00,    0.00,    0.00,  0.00000,  0.00000,  0.00000,  0.00000,1,1,   0.00,   1,1.0000
    10,    13,'1 ', 4.00000E-4, 4.30000E-3,   0.07290,'                                        ',  600.00,  600.00,  600.00,    0.00,    0.00,    0.00,    0.00,    0.00,    0.00,    0.00,    0.00,    0.00,  0.00000,  0.00000,  0.00000,  0.00000,1,1,   0.00,   1,1.0000
    13,    14,'1 ', 9.00000E-4, 1.01000E-2,   0.17230,'                                        ',  600.00,  600.00,  600.00,    0.00,    0.00,    0.00,    0.00,    0.00,    0.00,    0.00,    0.00,    0.00,  0.00000,  0.00000,  0.00000,  0.00000,1,1,   0.00,   1,1.0000
    14,    15,'1 ', 1.80000E-3, 2.17000E-2,   0.36600,'                                        ',  600.00,  600.00,  600.00,    0.00,    0.00,    0.00,    0.00,    0.00,    0.00,    0.00,    0.00,    0.00,  0.00000,  0.00000,  0.00000,  0.00000,1,1,   0.00,   1,1.0000
    15,    16,'1 ', 9.00000E-4, 9.40000E-3,   0.17100,'                                        ',  600.00,  600.00,  600.00,    0.00,    0.00,    0.00,    0.00,    0.00,    0.00,    0.00,    0.00,    0.00,  0.00000,  0.00000,  0.00000,  0.00000,1,1,   0.00,   1,1.0000
    16,    17,'1 ', 7.00000E-4, 8.90000E-3,   0.13420,'                                        ',  600.00,  600.00,  600.00,    0.00,    0.00,    0.00,    0.00,    0.00,    0.00,    0.00,    0.00,    0.00,  0.00000,  0.00000,  0.00000,  0.00000,1,1,   0.00,   1,1.0000
    16,    19,'1 ', 1.60000E-3, 1.95000E-2,   0.30400,'                                        ',  600.00,  600.00, 2500.00,    0.00,    0.00,    0.00,    0.00,    0.00,    0.00,    0.00,    0.00,    0.00,  0.00000,  0.00000,  0.00000,  0.00000,1,1,   0.00,   1,1.0000
    16,    21,'1 ', 8.00000E-4, 1.35000E-2,   0.25480,'                                        ',  600.00,  600.00,  600.00,    0.00,    0.00,    0.00,    0.00,    0.00,    0.00,    0.00,    0.00,    0.00,  0.00000,  0.00000,  0.00000,  0.00000,1,1,   0.00,   1,1.0000
    16,    24,'1 ', 3.00000E-4, 5.90000E-3,   0.06800,'                                        ',  600.00,  600.00,  600.00,    0.00,    0.00,    0.00,    0.00,    0.00,    0.00,    0.00,    0.00,    0.00,  0.00000,  0.00000,  0.00000,  0.00000,1,1,   0.00,   1,1.0000
    17,    18,'1 ', 7.00000E-4, 8.20000E-3,   0.13190,'                                        ',  600.00,  600.00,  600.00,    0.00,    0.00,    0.00,    0.00,    0.00,    0.00,    0.00,    0.00,    0.00,  0.00000,  0.00000,  0.00000,  0.00000,1,1,   0.00,   1,1.0000
    17,    27,'1 ', 1.30000E-3, 1.73000E-2,   0.32160,'                                        ',  600.00,  600.00,  600.00,    0.00,    0.00,    0.00,    0.00,    0.00,    0.00,    0.00,    0.00,    0.00,  0.00000,  0.00000,  0.00000,  0.00000,1,1,   0.00,   1,1.0000
    21,    22,'1 ', 8.00000E-4, 1.40000E-2,   0.25650,'                                        ',  900.00,  900.00,  900.00,    0.00,    0.00,    0.00,    0.00,    0.00,    0.00,    0.00,    0.00,    0.00,  0.00000,  0.00000,  0.00000,  0.00000,1,1,   0.00,   1,1.0000
    22,    23,'1 ', 6.00000E-4, 9.60000E-3,   0.18460,'                                        ',  600.00,  600.00,  600.00,    0.00,    0.00,    0.00,    0.00,    0.00,    0.00,    0.00,    0.00,    0.00,  0.00000,  0.00000,  0.00000,  0.00000,1,1,   0.00,   1,1.0000
    23,    24,'1 ', 2.20000E-3, 3.50000E-2,   0.36100,'                                        ',  600.00,  600.00,  600.00,    0.00,    0.00,    0.00,    0.00,    0.00,    0.00,    0.00,    0.00,    0.00,  0.00000,  0.00000,  0.00000,  0.00000,1,1,   0.00,   1,1.0000
    23,    36,'1 ', 5.00000E-4, 2.72000E-2,   0.00000,'                                        ',  900.00,  900.00, 2500.00,    0.00,    0.00,    0.00,    0.00,    0.00,    0.00,    0.00,    0.00,    0.00,  0.00000,  0.00000,  0.00000,  0.00000,1,1,   0.00,   1,1.0000
    25,    26,'1 ', 3.20000E-3, 3.23000E-2,   0.53100,'                                        ',  600.00,  600.00,  600.00,    0.00,    0.00,    0.00,    0.00,    0.00,    0.00,    0.00,    0.00,    0.00,  0.00000,  0.00000,  0.00000,  0.00000,1,1,   0.00,   1,1.0000
    26,    27,'1 ', 1.40000E-3, 1.47000E-2,   0.23960,'                                        ',  600.00,  600.00,  600.00,    0.00,    0.00,    0.00,    0.00,    0.00,    0.00,    0.00,    0.00,    0.00,  0.00000,  0.00000,  0.00000,  0.00000,1,1,   0.00,   1,1.0000
    26,    28,'1 ', 4.30000E-3, 4.74000E-2,   0.78020,'                                        ',  600.00,  600.00,  600.00,    0.00,    0.00,    0.00,    0.00,    0.00,    0.00,    0.00,    0.00,    0.00,  0.00000,  0.00000,  0.00000,  0.00000,1,1,   0.00,   1,1.0000
    26,    29,'1 ', 5.70000E-3, 6.25000E-2,   1.02900,'                                        ',  600.00,  600.00,  600.00,    0.00,    0.00,    0.00,    0.00,    0.00,    0.00,    0.00,    0.00,    0.00,  0.00000,  0.00000,  0.00000,  0.00000,1,1,   0.00,   1,1.0000
    28,    29,'1 ', 1.40000E-3, 1.51000E-2,   0.24900,'                                        ',  600.00,  600.00,  600.00,    0.00,    0.00,    0.00,    0.00,    0.00,    0.00,    0.00,    0.00,    0.00,  0.00000,  0.00000,  0.00000,  0.00000,1,1,   0.00,   1,1.0000
0 / END OF BRANCH DATA, BEGIN SYSTEM SWITCHING DEVICE DATA
@!   I,     J,'CKT',          X,   RATE1,   RATE2,   RATE3,   RATE4,   RATE5,   RATE6,   RATE7,   RATE8,   RATE9,  RATE10,  RATE11,  RATE12, STAT,NSTAT,  MET,STYPE,'NAME'
0 / END OF SYSTEM SWITCHING DEVICE DATA, BEGIN TRANSFORMER DATA
@!   I,     J,     K,'CKT',CW,CZ,CM,    MAG1,       MAG2,NMETR,               'N A M E',               STAT,O1,  F1,    O2,  F2,    O3,  F3,    O4,  F4,     'VECGRP', ZCOD
@!   R1-2,       X1-2,   SBASE1-2,     R2-3,       X2-3,   SBASE2-3,     R3-1,       X3-1,   SBASE3-1, VMSTAR,   ANSTAR
@!WINDV1,  NOMV1,    ANG1,  RATE1-1,  RATE1-2,  RATE1-3,  RATE1-4,  RATE1-5,  RATE1-6,  RATE1-7,  RATE1-8,  RATE1-9, RATE1-10, RATE1-11, RATE1-12,COD1,CONT1,   RMA1,    RMI1,    VMA1,    VMI1, NTP1,TAB1,  CR1,     CX1,   CNXA1
@!WINDV2,  NOMV2,    ANG2,  RATE2-1,  RATE2-2,  RATE2-3,  RATE2-4,  RATE2-5,  RATE2-6,  RATE2-7,  RATE2-8,  RATE2-9, RATE2-10, RATE2-11, RATE2-12,COD2,CONT2,   RMA2,    RMI2,    VMA2,    VMI2, NTP2,TAB2,  CR2,     CX2,   CNXA2
@!WINDV3,  NOMV3,    ANG3,  RATE3-1,  RATE3-2,  RATE3-3,  RATE3-4,  RATE3-5,  RATE3-6,  RATE3-7,  RATE3-8,  RATE3-9, RATE3-10, RATE3-11, RATE3-12,COD3,CONT3,   RMA3,    RMI3,    VMA3,    VMI3, NTP3,TAB3,  CR3,     CX3,   CNXA3
     2,    30,     0,'1 ', 1, 1, 1, 0.00000E+0, 0.00000E+0,2,'                                        ',1,   1,1.0000,   0,1.0000,   0,1.0000,   0,1.0000,'            '
 1.00000E-7, 1.81000E-2,   100.00
1.02500, 345.000,   0.000,   900.00,   900.00,  2500.00,    0,     0.00,     1.125,     0.925,     1.125,     09.25,     151,     0.00,     0.00,-1,      0, 1.50000, 0.51000, 1.50000, 0.51000, 159, 0, 0.00000, 0.00000,  0.000
1.00000, 345.000
     6,    31,     0,'1 ', 1, 1, 1, 0.00000E+0, 0.00000E+0,2,'                                        ',1,   1,1.0000,   0,1.0000,   0,1.0000,   0,1.0000,'            '
 1.00000E-7, 2.50000E-2,   100.00
1.07000, 345.000,   0.000,  1800.00,  1800.00,  1800.00,     0,     0.00,     0.00,     0.00,     0.00,     0.00,     0.00,     0.00,     0.00,-1,      0, 1.50000, 0.51000, 1.50000, 0.51000, 159, 0, 0.00000, 0.00000,  0.000
1.00000, 345.000
    10,    32,     0,'1 ', 1, 1, 1, 0.00000E+0, 0.00000E+0,2,'                                        ',1,   1,1.0000,   0,1.0000,   0,1.0000,   0,1.0000,'            '
 1.00000E-7, 2.00000E-2,   100.00
1.07000, 345.000,   0.000,   900.00,   900.00,  2500.00,     0,     1.1700,     0.97,     1.17,     0.97,     0.00,     0.00,     0.00,     0.00,-1,      0, 1.50000, 0.51000, 1.50000, 0.51000, 159, 0, 0.00000, 0.00000,  0.000
1.00000, 345.000
    12,    11,     0,'1 ', 1, 1, 1, 0.00000E+0, 0.00000E+0,2,'                                        ',1,   1,1.0000,   0,1.0000,   0,1.0000,   0,1.0000,'            '
 1.60000E-3, 4.35000E-2,   100.00
1.00600, 345.000,   0.000,   500.00,   500.00,   500.00,      1,     0,     1.2060,     0.806,     1.2006,     0.806,     151,     0.00,     0.00,-1,      0, 1.50000, 0.51000, 1.50000, 0.51000, 159, 0, 0.00000, 0.00000,  0.000
1.00000, 345.000
    12,    13,     0,'1 ', 1, 1, 1, 0.00000E+0, 0.00000E+0,2,'                                        ',1,   1,1.0000,   0,1.0000,   0,1.0000,   0,1.0000,'            '
 1.60000E-3, 4.35000E-2,   100.00
1.00600, 345.000,   0.000,   500.00,   500.00,   500.00,     0,     0.00,     1.2060,     0.806,     1.2006,     0.806,     0.00,     0.00,     0.00,-1,      0, 1.50000, 0.51000, 1.50000, 0.51000, 159, 0, 0.00000, 0.00000,  0.000
1.00000, 345.000
    19,    20,     0,'1 ', 1, 1, 1, 0.00000E+0, 0.00000E+0,2,'                                        ',1,   1,1.0000,   0,1.0000,   0,1.0000,   0,1.0000,'            '
 7.00000E-4, 1.38000E-2,   100.00
1.06000, 345.000,   0.000,   900.00,   900.00,  2500.00,     0,     0.00,     1.2060,     0.806,     1.2006,     0.806,    0.00,     0.00,     0.00,-1,      0, 1.50000, 0.51000, 1.50000, 0.51000, 159, 0, 0.00000, 0.00000,  0.000
1.00000, 345.000
    19,    33,     0,'1 ', 1, 1, 1, 0.00000E+0, 0.00000E+0,2,'                                        ',1,   1,1.0000,   0,1.0000,   0,1.0000,   0,1.0000,'            '
 7.00000E-4, 1.42000E-2,   100.00
1.07000, 345.000,   0.000,   900.00,   900.00,  2500.00,     0.00,     0.00,     0.00,     0.00,     0.00,     0.00,     0.00,     0.00,     0.00,-1,      0, 1.50000, 0.51000, 1.50000, 0.51000, 159, 0, 0.00000, 0.00000,  0.000
1.00000, 345.000
    20,    34,     0,'1 ', 1, 1, 1, 0.00000E+0, 0.00000E+0,2,'                                        ',1,   1,1.0000,   0,1.0000,   0,1.0000,   0,1.0000,'            '
 9.00000E-4, 1.80000E-2,   100.00
1.00900, 345.000,   0.000,   900.00,   900.00,  2500.00,     0.00,     0.00,     0.00,     0.00,     0.00,     0.00,     0.00,     0.00,     0.00,-1,      0, 1.50000, 0.51000, 1.50000, 0.51000, 159, 0, 0.00000, 0.00000,  0.000
1.00000, 345.000
    22,    35,     0,'1 ', 1, 1, 1, 0.00000E+0, 0.00000E+0,2,'                                        ',1,   1,1.0000,   0,1.0000,   0,1.0000,   0,1.0000,'            '
 1.00000E-7, 1.43000E-2,   100.00
1.02500, 345.000,   0.000,   900.00,   900.00,  2500.00,     0.00,     0.00,     0.00,     0.00,     0.00,     0.00,     0.00,     0.00,     0.00,-1,      0, 1.50000, 0.51000, 1.50000, 0.51000, 159, 0, 0.00000, 0.00000,  0.000
1.00000, 345.000
    25,    37,     0,'1 ', 1, 1, 1, 0.00000E+0, 0.00000E+0,2,'                                        ',1,   1,1.0000,   0,1.0000,   0,1.0000,   0,1.0000,'            '
 6.00000E-4, 2.32000E-2,   100.00
1.02500, 345.000,   0.000,   900.00,   900.00,  2500.00,     0.00,     0.00,     0.00,     0.00,     0.00,     0.00,     0.00,     0.00,     0.00,-1,      0, 1.50000, 0.51000, 1.50000, 0.51000, 159, 0, 0.00000, 0.00000,  0.000
1.00000, 345.000
    29,    38,     0,'1 ', 1, 1, 1, 0.00000E+0, 0.00000E+0,2,'                                        ',1,   1,1.0000,   0,1.0000,   0,1.0000,   0,1.0000,'            '
 8.00000E-4, 1.56000E-2,   100.00
1.02500, 345.000,   0.000,  1200.00,  1200.00,  2500.00,     0.00,     0.00,     0.00,     0.00,     0.00,     0.00,     0.00,     0.00,     0.00,-1,      0, 1.50000, 0.51000, 1.50000, 0.51000, 159, 0, 0.00000, 0.00000,  0.000
1.00000, 345.000
0 / END OF TRANSFORMER DATA, BEGIN AREA DATA
@! I,   ISW,     PDES,      PTOL,    'ARNAME'
   1,     0,     0.000,     1.000,'1           '
   2,     0,     0.000,     1.000,'2           '
   3,     0,     0.000,     1.000,'3           '
0 / END OF AREA DATA, BEGIN TWO-TERMINAL DC DATA
@!  'NAME',   MDC,     RDC,      SETVL,     VSCHD,     VCMOD,     RCOMP,    DELTI,METER    DCVMIN,CCCITMX, CCCACC
@! IPR,NBR,ANMXR,ANMNR,   RCR,    XCR,  EBASR,  TRR,    TAPR,   TMXR,   TMNR,   STPR,    ICR,   IFR,   ITR,'IDR', XCAPR
@! IPI,NBI,ANMXI,ANMNI,   RCI,    XCI,  EBASI,  TRI,    TAPI,   TMXI,   TMNI,   STPI,    ICI,   IFI,   ITI,'IDI', XCAPI
0 / END OF TWO-TERMINAL DC DATA, BEGIN VSC DC LINE DATA
@!  'NAME',   MDC,     RDC,   O1,  F1,    O2,  F2,    O3,  F3,    O4,  F4
@!IBUS,TYPE,MODE,     DCSET,   ACSET,     ALOSS,     BLOSS,   MINLOSS,     SMAX,      IMAX,   PWF,        MAXQ,      MINQ, REMOT,  RMPCT
0 / END OF VSC DC LINE DATA, BEGIN IMPEDANCE CORRECTION DATA
@!I,   T1,    Re(F1),  Im(F1),    T2,    Re(F2),  Im(F2),    T3,    Re(F3),  Im(F3),    T4,    Re(F4),  Im(F4),    T5,    Re(F5),  Im(F5),    T6,    Re(F6),  Im(F6)
@!     T7,    Re(F7),  Im(F7),    T8,    Re(F8),  Im(F8),    T9,    Re(F9),  Im(F9),    T10,  Re(F10), Im(F10),    T11,  Re(F11), Im(F11),    T12,  Re(F12), Im(F12)
@!      ...
0 / END OF IMPEDANCE CORRECTION DATA, BEGIN MULTI-TERMINAL DC DATA
@!  'NAME',    NCONV,NDCBS,NDCLN,  MDC, VCONV,     VCMOD, VCONVN
@!  IB, N,ANGMX,ANGMN,    RC,      XC,    EBAS,   TR,    TAP,    TPMX,   TPMN,   TSTP,     SETVL,   DCPF,    MARG,CNVCOD
@!IDC, IB,AREA,ZONE,   'DCNAME',  IDC2,   RGRND,OWNER
@!IDC,JDC,'DCCKT',MET,   RDC,        LDC
0 / END OF MULTI-TERMINAL DC DATA, BEGIN MULTI-SECTION LINE DATA
@!   I,     J,'ID',MET,DUM1,  DUM2,  DUM3,  DUM4,  DUM5,  DUM6,  DUM7,  DUM8,  DUM9
0 / END OF MULTI-SECTION LINE DATA, BEGIN ZONE DATA
@! I,   'ZONAME'
   1,'1           '
0 / END OF ZONE DATA, BEGIN INTER-AREA TRANSFER DATA
@!ARFROM,ARTO,'TRID', PTRAN
0 / END OF INTER-AREA TRANSFER DATA, BEGIN OWNER DATA
@! I,   'OWNAME'
   1,'1           '
0 / END OF OWNER DATA, BEGIN FACTS DEVICE DATA
@!  'NAME',         I,     J,MODE,   PDES,      QDES,  VSET,      SHMX,      TRMX,   VTMN,   VTMX,   VSMX,      IMX,     LINX,   RMPCT,OWNER,    SET1,      SET2,VSREF, REMOT,   'MNAME'
0 / END OF FACTS DEVICE DATA, BEGIN SWITCHED SHUNT DATA
@!  I,MODSW,ADJM,ST, VSWHI,  VSWLO, SWREM,  RMPCT,   'RMIDNT',      BINIT,N1,     B1, N2,     B2, N3,     B3, N4,     B4, N5,     B5, N6,     B6, N7,     B7, N8,     B8
0 / END OF SWITCHED SHUNT DATA, BEGIN GNE DATA
@!  'NAME',        'MODEL',     NTERM,BUS1...BUSNTERM,NREAL,NINTG,NCHAR
@!ST,OWNER,NMETR
@! REAL1...REAL(MIN(10,NREAL))
@! INTG1...INTG(MIN(10,NINTG))
@! CHAR1...CHAR(MIN(10,NCHAR))
0 / END OF GNE DATA, BEGIN INDUCTION MACHINE DATA
@!   I,'ID',ST,SC,DC,AREA,ZONE,OWNER,TC,BC,  MBASE, RATEKV,PC,  PSET,      H,       A,       B,       D,       E,     RA,        XA,        XM,        R1,        X1,        R2,        X2,        X3,       E1,    SE1,   E2,    SE2,   IA1,   IA2, XAMULT
0 / END OF INDUCTION MACHINE DATA, BEGIN SUBSTATION DATA
0 / END OF SUBSTATION DATA
Q
